# generated using pymatgen
data_NbCrO4
_symmetry_space_group_name_H-M   'P 1'
_cell_length_a   6.70124761
_cell_length_b   6.70124761
_cell_length_c   6.11167922
_cell_angle_alpha   90.00000000
_cell_angle_beta   90.00000000
_cell_angle_gamma   90.00000000
_symmetry_Int_Tables_number   1
_chemical_formula_structural   NbCrO4
_chemical_formula_sum   'Nb4 Cr4 O16'
_cell_volume   274.45546459
_cell_formula_units_Z   4
loop_
 _symmetry_equiv_pos_site_id
 _symmetry_equiv_pos_as_xyz
  1  'x, y, z'
loop_
 _atom_site_type_symbol
 _atom_site_label
 _atom_site_symmetry_multiplicity
 _atom_site_fract_x
 _atom_site_fract_y
 _atom_site_fract_z
 _atom_site_occupancy
  Cr  Cr0  1  0.00000000  0.00000000  0.14234665  1
  Cr  Cr1  1  0.00000000  0.50000000  0.39234665  1
  Cr  Cr2  1  0.50000000  0.50000000  0.64234665  1
  Cr  Cr3  1  0.50000000  0.00000000  0.89234665  1
  Nb  Nb4  1  0.00000000  0.00000000  0.77701119  1
  Nb  Nb5  1  0.00000000  0.50000000  0.02701119  1
  Nb  Nb6  1  0.50000000  0.50000000  0.27701119  1
  Nb  Nb7  1  0.50000000  0.00000000  0.52701119  1
  O  O8  1  0.82870628  0.85951138  0.20487544  1
  O  O9  1  -0.32870628  -0.35951138  0.70487544  1
  O  O10  1  -0.85951138  1.32870628  0.45487544  1
  O  O11  1  1.35951138  -0.82870628  0.95487544  1
  O  O12  1  0.82870628  -0.85951138  0.20487544  1
  O  O13  1  -0.32870628  1.35951138  0.70487544  1
  O  O14  1  -0.85951138  -0.32870628  0.45487544  1
  O  O15  1  1.35951138  0.82870628  0.95487544  1
  O  O16  1  1.32870628  1.35951138  0.70487544  1
  O  O17  1  0.17129372  0.14048862  1.20487544  1
  O  O18  1  -0.35951138  1.82870628  0.95487544  1
  O  O19  1  1.85951138  -0.32870628  1.45487544  1
  O  O20  1  1.32870628  -0.35951138  0.70487544  1
  O  O21  1  0.17129372  1.85951138  1.20487544  1
  O  O22  1  -0.35951138  0.17129372  0.95487544  1
  O  O23  1  1.85951138  1.32870628  1.45487544  1
